<?xml version="1.0" encoding="UTF-8"?>

<!-- generated on 2026-01-27T16:55:27.944499+05:30 by Eclipse SUMO sumo 1.25.0
-->

<sumoConfiguration xmlns:xsi="http://www.w3.org/2001/XMLSchema-instance" xsi:noNamespaceSchemaLocation="http://sumo.dlr.de/xsd/sumoConfiguration.xsd">

    <input>
        <net-file value="draft02.net.xml"/>
        <route-files value="vtypes.rou.xml,draft02.rou.xml,ambulance.rou.xml"/>
    </input>

</sumoConfiguration>
