<?xml version="1.0" encoding="UTF-8"?>

<!-- generated on 2026-01-23T10:41:03.624814+05:30 by Eclipse SUMO netedit 1.25.0
<neteditConfiguration xmlns:xsi="http://www.w3.org/2001/XMLSchema-instance" xsi:noNamespaceSchemaLocation="http://sumo.dlr.de/xsd/neteditConfiguration.xsd">

    <input>
        <sumocfg-file value="/home/mayamint/draft02.sumocfg"/>
        <route-files value="/home/mayamint/draft02.rou.xml"/>
        <sumo-net-file value="/home/mayamint/draft02.net.xml"/>
    </input>

    <output>
        <output-file value="/home/mayamint/draft02.net.xml"/>
    </output>

    <processing>
        <geometry.min-radius.fix.railways value="false"/>
        <geometry.avoid-overlap value="false"/>
        <geometry.max-grade.fix value="false"/>
        <offset.disable-normalization value="true"/>
        <lefthand value="0"/>
    </processing>

    <junctions>
        <no-turnarounds value="true"/>
        <junctions.corner-detail value="5"/>
        <junctions.limit-turn-speed value="5.50"/>
        <rectangular-lane-cut value="0"/>
    </junctions>

    <pedestrian>
        <walkingareas value="0"/>
    </pedestrian>

</neteditConfiguration>
-->

<net version="1.20" junctionCornerDetail="5" limitTurnSpeed="5.50" avoidOverlap="0" xmlns:xsi="http://www.w3.org/2001/XMLSchema-instance" xsi:noNamespaceSchemaLocation="http://sumo.dlr.de/xsd/net_file.xsd">

    <location netOffset="0.00,0.00" convBoundary="-66.49,-20.96,58.09,42.00" origBoundary="-10000000000.00,-10000000000.00,10000000000.00,10000000000.00" projParameter="!"/>

    <edge id=":J4_0" function="internal">
        <lane id=":J4_0_0" index="0" speed="6.53" length="9.09" shape="-27.75,23.02 -28.10,20.53 -29.15,18.76 -30.90,17.69 -33.35,17.34"/>
    </edge>
    <edge id=":J4_1" function="internal">
        <lane id=":J4_1_0" index="0" speed="13.89" length="20.87" shape="-27.75,23.02 -27.72,2.15"/>
        <lane id=":J4_1_1" index="1" speed="13.89" length="20.87" shape="-24.55,23.02 -24.52,2.16"/>
    </edge>
    <edge id=":J4_3" function="internal">
        <lane id=":J4_3_0" index="0" speed="9.24" length="5.06" shape="-24.55,23.02 -23.83,18.00"/>
    </edge>
    <edge id=":J4_16" function="internal">
        <lane id=":J4_16_0" index="0" speed="9.24" length="14.38" shape="-23.83,18.00 -23.79,17.73 -21.53,13.98 -17.75,11.76 -12.46,11.06"/>
    </edge>
    <edge id=":J4_4" function="internal">
        <lane id=":J4_4_0" index="0" speed="6.48" length="9.03" shape="-12.53,17.46 -14.99,17.79 -16.75,18.82 -17.80,20.56 -18.15,23.02"/>
    </edge>
    <edge id=":J4_5" function="internal">
        <lane id=":J4_5_0" index="0" speed="13.89" length="20.84" shape="-12.53,17.46 -33.35,17.34"/>
        <lane id=":J4_5_1" index="1" speed="13.89" length="20.84" shape="-12.49,14.26 -33.35,14.14"/>
    </edge>
    <edge id=":J4_7" function="internal">
        <lane id=":J4_7_0" index="0" speed="9.30" length="4.86" shape="-12.49,14.26 -17.30,13.53"/>
    </edge>
    <edge id=":J4_17" function="internal">
        <lane id=":J4_17_0" index="0" speed="9.30" length="14.56" shape="-17.30,13.53 -17.77,13.45 -21.53,11.17 -23.78,7.40 -24.52,2.16"/>
    </edge>
    <edge id=":J4_8" function="internal">
        <lane id=":J4_8_0" index="0" speed="6.57" length="9.16" shape="-18.12,2.18 -17.77,4.64 -16.70,6.41 -14.92,7.48 -12.42,7.86"/>
    </edge>
    <edge id=":J4_9" function="internal">
        <lane id=":J4_9_0" index="0" speed="13.89" length="20.84" shape="-18.12,2.18 -18.15,23.02"/>
        <lane id=":J4_9_1" index="1" speed="13.89" length="20.84" shape="-21.32,2.17 -21.35,23.02"/>
    </edge>
    <edge id=":J4_11" function="internal">
        <lane id=":J4_11_0" index="0" speed="9.27" length="4.95" shape="-21.32,2.17 -22.03,7.07"/>
    </edge>
    <edge id=":J4_18" function="internal">
        <lane id=":J4_18_0" index="0" speed="9.27" length="14.39" shape="-22.03,7.07 -22.08,7.41 -24.34,11.15 -28.10,13.39 -33.35,14.14"/>
    </edge>
    <edge id=":J4_12" function="internal">
        <lane id=":J4_12_0" index="0" speed="6.52" length="9.05" shape="-33.35,7.74 -30.89,7.39 -29.13,6.34 -28.07,4.59 -27.72,2.15"/>
    </edge>
    <edge id=":J4_13" function="internal">
        <lane id=":J4_13_0" index="0" speed="13.89" length="20.91" shape="-33.35,7.74 -12.42,7.86"/>
        <lane id=":J4_13_1" index="1" speed="13.89" length="20.91" shape="-33.35,10.94 -12.46,11.06"/>
    </edge>
    <edge id=":J4_15" function="internal">
        <lane id=":J4_15_0" index="0" speed="9.27" length="5.14" shape="-33.35,10.94 -28.26,11.67"/>
    </edge>
    <edge id=":J4_19" function="internal">
        <lane id=":J4_19_0" index="0" speed="9.27" length="14.27" shape="-28.26,11.67 -28.10,11.69 -24.35,13.96 -22.10,17.73 -21.35,23.02"/>
    </edge>
    <edge id=":J6_0" function="internal">
        <lane id=":J6_0_0" index="0" speed="6.59" length="9.22" shape="8.75,23.37 8.39,20.89 7.32,19.11 5.52,18.03 3.02,17.65"/>
    </edge>
    <edge id=":J6_1" function="internal">
        <lane id=":J6_1_0" index="0" speed="13.89" length="20.88" shape="8.75,23.37 8.75,2.49"/>
        <lane id=":J6_1_1" index="1" speed="13.89" length="20.88" shape="11.95,23.37 11.95,2.49"/>
    </edge>
    <edge id=":J6_3" function="internal">
        <lane id=":J6_3_0" index="0" speed="9.26" length="5.01" shape="11.95,23.37 12.66,18.42"/>
    </edge>
    <edge id=":J6_16" function="internal">
        <lane id=":J6_16_0" index="0" speed="9.26" length="14.35" shape="12.66,18.42 12.70,18.12 14.95,14.37 18.70,12.12 23.96,11.38"/>
    </edge>
    <edge id=":J6_4" function="internal">
        <lane id=":J6_4_0" index="0" speed="6.51" length="9.03" shape="23.95,17.78 21.50,18.13 19.75,19.17 18.70,20.92 18.35,23.37"/>
    </edge>
    <edge id=":J6_5" function="internal">
        <lane id=":J6_5_0" index="0" speed="13.89" length="20.92" shape="23.95,17.78 3.02,17.65"/>
        <lane id=":J6_5_1" index="1" speed="13.89" length="20.92" shape="23.95,14.58 3.05,14.45"/>
    </edge>
    <edge id=":J6_7" function="internal">
        <lane id=":J6_7_0" index="0" speed="9.28" length="5.14" shape="23.95,14.58 18.87,13.84"/>
    </edge>
    <edge id=":J6_17" function="internal">
        <lane id=":J6_17_0" index="0" speed="9.28" length="14.28" shape="18.87,13.84 18.70,13.82 14.95,11.55 12.70,7.78 11.95,2.49"/>
    </edge>
    <edge id=":J6_8" function="internal">
        <lane id=":J6_8_0" index="0" speed="6.53" length="9.11" shape="18.35,2.49 18.70,4.98 19.75,6.75 21.50,7.82 23.96,8.18"/>
    </edge>
    <edge id=":J6_9" function="internal">
        <lane id=":J6_9_0" index="0" speed="13.89" length="20.88" shape="18.35,2.49 18.35,23.37"/>
        <lane id=":J6_9_1" index="1" speed="13.89" length="20.88" shape="15.15,2.49 15.15,23.37"/>
    </edge>
    <edge id=":J6_11" function="internal">
        <lane id=":J6_11_0" index="0" speed="9.24" length="5.01" shape="15.15,2.49 14.44,7.45"/>
    </edge>
    <edge id=":J6_18" function="internal">
        <lane id=":J6_18_0" index="0" speed="9.24" length="14.43" shape="14.44,7.45 14.39,7.78 12.13,11.53 8.35,13.75 3.05,14.45"/>
    </edge>
    <edge id=":J6_12" function="internal">
        <lane id=":J6_12_0" index="0" speed="6.48" length="9.03" shape="3.13,8.05 5.59,7.72 7.34,6.69 8.40,4.95 8.75,2.49"/>
    </edge>
    <edge id=":J6_13" function="internal">
        <lane id=":J6_13_0" index="0" speed="13.89" length="20.85" shape="3.13,8.05 23.96,8.18"/>
        <lane id=":J6_13_1" index="1" speed="13.89" length="20.85" shape="3.09,11.25 23.96,11.38"/>
    </edge>
    <edge id=":J6_15" function="internal">
        <lane id=":J6_15_0" index="0" speed="9.32" length="4.87" shape="3.09,11.25 7.90,11.99"/>
    </edge>
    <edge id=":J6_19" function="internal">
        <lane id=":J6_19_0" index="0" speed="9.32" length="14.59" shape="7.90,11.99 8.37,12.06 12.14,14.35 14.40,18.12 15.15,23.37"/>
    </edge>

    <edge id="-E1" from="J4" to="J3" priority="-1">
        <lane id="-E1_0" index="0" speed="13.89" length="33.14" shape="-33.35,17.34 -66.49,17.34"/>
        <lane id="-E1_1" index="1" speed="13.89" length="33.14" shape="-33.35,14.14 -66.49,14.14"/>
    </edge>
    <edge id="-E2" from="J5" to="J4" priority="-1">
        <lane id="-E2_0" index="0" speed="13.89" length="18.98" shape="-27.75,42.00 -27.75,23.02"/>
        <lane id="-E2_1" index="1" speed="13.89" length="18.98" shape="-24.55,42.00 -24.55,23.02"/>
    </edge>
    <edge id="-E3" from="J6" to="J4" priority="-1">
        <lane id="-E3_0" index="0" speed="13.89" length="15.55" shape="3.02,17.65 -12.53,17.46"/>
        <lane id="-E3_1" index="1" speed="13.89" length="15.55" shape="3.05,14.45 -12.49,14.26"/>
    </edge>
    <edge id="-E4" from="J7" to="J4" priority="-1">
        <lane id="-E4_0" index="0" speed="13.89" length="22.60" shape="-18.04,-20.42 -18.12,2.18"/>
        <lane id="-E4_1" index="1" speed="13.89" length="22.60" shape="-21.24,-20.43 -21.32,2.17"/>
    </edge>
    <edge id="-E5" from="J8" to="J6" priority="-1">
        <lane id="-E5_0" index="0" speed="13.89" length="18.63" shape="8.75,42.00 8.75,23.37"/>
        <lane id="-E5_1" index="1" speed="13.89" length="18.63" shape="11.95,42.00 11.95,23.37"/>
    </edge>
    <edge id="-E6" from="J9" to="J6" priority="-1">
        <lane id="-E6_0" index="0" speed="13.89" length="23.45" shape="18.34,-20.96 18.35,2.49"/>
        <lane id="-E6_1" index="1" speed="13.89" length="23.45" shape="15.14,-20.96 15.15,2.49"/>
    </edge>
    <edge id="-E7" from="J10" to="J6" priority="-1">
        <lane id="-E7_0" index="0" speed="13.89" length="34.14" shape="58.09,17.80 23.95,17.78"/>
        <lane id="-E7_1" index="1" speed="13.89" length="34.14" shape="58.09,14.60 23.95,14.58"/>
    </edge>
    <edge id="E1" from="J3" to="J4" priority="-1">
        <lane id="E1_0" index="0" speed="13.89" length="33.14" shape="-66.49,7.74 -33.35,7.74"/>
        <lane id="E1_1" index="1" speed="13.89" length="33.14" shape="-66.49,10.94 -33.35,10.94"/>
    </edge>
    <edge id="E2" from="J4" to="J5" priority="-1">
        <lane id="E2_0" index="0" speed="13.89" length="18.98" shape="-18.15,23.02 -18.15,42.00"/>
        <lane id="E2_1" index="1" speed="13.89" length="18.98" shape="-21.35,23.02 -21.35,42.00"/>
    </edge>
    <edge id="E3" from="J4" to="J6" priority="-1">
        <lane id="E3_0" index="0" speed="13.89" length="15.55" shape="-12.42,7.86 3.13,8.05"/>
        <lane id="E3_1" index="1" speed="13.89" length="15.55" shape="-12.46,11.06 3.09,11.25"/>
    </edge>
    <edge id="E4" from="J4" to="J7" priority="-1">
        <lane id="E4_0" index="0" speed="13.89" length="22.60" shape="-27.72,2.15 -27.64,-20.46"/>
        <lane id="E4_1" index="1" speed="13.89" length="22.60" shape="-24.52,2.16 -24.44,-20.45"/>
    </edge>
    <edge id="E5" from="J6" to="J8" priority="-1">
        <lane id="E5_0" index="0" speed="13.89" length="18.63" shape="18.35,23.37 18.35,42.00"/>
        <lane id="E5_1" index="1" speed="13.89" length="18.63" shape="15.15,23.37 15.15,42.00"/>
    </edge>
    <edge id="E6" from="J6" to="J9" priority="-1">
        <lane id="E6_0" index="0" speed="13.89" length="23.45" shape="8.75,2.49 8.74,-20.96"/>
        <lane id="E6_1" index="1" speed="13.89" length="23.45" shape="11.95,2.49 11.94,-20.96"/>
    </edge>
    <edge id="E7" from="J6" to="J10" priority="-1">
        <lane id="E7_0" index="0" speed="13.89" length="34.14" shape="23.96,8.18 58.09,8.20"/>
        <lane id="E7_1" index="1" speed="13.89" length="34.14" shape="23.96,11.38 58.09,11.40"/>
    </edge>

    <tlLogic id="J4" type="static" programID="0" offset="0">
        <phase duration="10" state="GGGgrrrrGGGgrrrr"/>
        <phase duration="3"  state="yyyyrrrryyyyrrrr"/>
        <phase duration="10" state="rrrrGGGgrrrrGGGg"/>
        <phase duration="3"  state="rrrryyyyrrrryyyy"/>
    </tlLogic>
    <tlLogic id="J6" type="static" programID="0" offset="0">
        <phase duration="10" state="GGGgrrrrGGGgrrrr"/>
        <phase duration="3"  state="yyyyrrrryyyyrrrr"/>
        <phase duration="10" state="rrrrGGGgrrrrGGGg"/>
        <phase duration="3"  state="rrrryyyyrrrryyyy"/>
    </tlLogic>

    <junction id="J10" type="dead_end" x="58.09" y="13.00" incLanes="E7_0 E7_1" intLanes="" shape="58.09,13.00 58.09,6.60 58.09,13.00"/>
    <junction id="J3" type="dead_end" x="-66.49" y="12.54" incLanes="-E1_0 -E1_1" intLanes="" shape="-66.49,12.54 -66.49,18.94 -66.49,12.54"/>
    <junction id="J4" type="traffic_light" x="-22.95" y="12.54" incLanes="-E2_0 -E2_1 -E3_0 -E3_1 -E4_0 -E4_1 E1_0 E1_1" intLanes=":J4_0_0 :J4_1_0 :J4_1_1 :J4_16_0 :J4_4_0 :J4_5_0 :J4_5_1 :J4_17_0 :J4_8_0 :J4_9_0 :J4_9_1 :J4_18_0 :J4_12_0 :J4_13_0 :J4_13_1 :J4_19_0" shape="-29.35,23.02 -16.55,23.02 -16.11,20.80 -15.55,20.03 -14.77,19.48 -13.77,19.16 -12.55,19.06 -12.40,6.26 -14.69,5.79 -15.49,5.22 -16.06,4.43 -16.40,3.42 -16.52,2.18 -29.32,2.14 -29.77,4.36 -30.33,5.14 -31.11,5.70 -32.12,6.03 -33.35,6.14 -33.35,18.94 -31.13,19.39 -30.35,19.96 -29.79,20.75 -29.46,21.77">
        <request index="0"  response="0000000000000000" foes="0000000001100000" cont="0"/>
        <request index="1"  response="1000000000000000" foes="1111100011100000" cont="0"/>
        <request index="2"  response="1000000010000000" foes="1111100011100000" cont="0"/>
        <request index="3"  response="1000011010000000" foes="1110011011100000" cont="1"/>
        <request index="4"  response="0000011000000000" foes="0000011000000000" cont="0"/>
        <request index="5"  response="0000111000001111" foes="1000111000001111" cont="0"/>
        <request index="6"  response="0000111000001111" foes="1000111000001111" cont="0"/>
        <request index="7"  response="0110111000001110" foes="0110111000001110" cont="1"/>
        <request index="8"  response="0000000000000000" foes="0110000000000000" cont="0"/>
        <request index="9"  response="0000000010000000" foes="1110000011111000" cont="0"/>
        <request index="10" response="1000000010000000" foes="1110000011111000" cont="0"/>
        <request index="11" response="1000000010000110" foes="1110000011100110" cont="1"/>
        <request index="12" response="0000000000000110" foes="0000000000000110" cont="0"/>
        <request index="13" response="0000111100001110" foes="0000111110001110" cont="0"/>
        <request index="14" response="0000111100001110" foes="0000111110001110" cont="0"/>
        <request index="15" response="0000111001101110" foes="0000111001101110" cont="1"/>
    </junction>
    <junction id="J5" type="dead_end" x="-22.95" y="42.00" incLanes="E2_0 E2_1" intLanes="" shape="-22.95,42.00 -16.55,42.00 -22.95,42.00"/>
    <junction id="J6" type="traffic_light" x="13.55" y="12.97" incLanes="-E5_0 -E5_1 -E7_0 -E7_1 -E6_0 -E6_1 E3_0 E3_1" intLanes=":J6_0_0 :J6_1_0 :J6_1_1 :J6_16_0 :J6_4_0 :J6_5_0 :J6_5_1 :J6_17_0 :J6_8_0 :J6_9_0 :J6_9_1 :J6_18_0 :J6_12_0 :J6_13_0 :J6_13_1 :J6_19_0" shape="7.15,23.37 19.95,23.37 20.39,21.15 20.95,20.37 21.73,19.82 22.73,19.49 23.95,19.38 23.96,6.58 21.73,6.12 20.95,5.55 20.39,4.76 20.06,3.74 19.95,2.49 7.15,2.49 6.70,4.71 6.15,5.48 5.37,6.03 4.37,6.35 3.15,6.45 3.00,19.25 5.30,19.73 6.11,20.30 6.69,21.10 7.03,22.13">
        <request index="0"  response="0000000000000000" foes="0000000001100000" cont="0"/>
        <request index="1"  response="1000000000000000" foes="1111100011100000" cont="0"/>
        <request index="2"  response="1000000010000000" foes="1111100011100000" cont="0"/>
        <request index="3"  response="1000011010000000" foes="1110011011100000" cont="1"/>
        <request index="4"  response="0000011000000000" foes="0000011000000000" cont="0"/>
        <request index="5"  response="0000111000001111" foes="1000111000001111" cont="0"/>
        <request index="6"  response="0000111000001111" foes="1000111000001111" cont="0"/>
        <request index="7"  response="0110111000001110" foes="0110111000001110" cont="1"/>
        <request index="8"  response="0000000000000000" foes="0110000000000000" cont="0"/>
        <request index="9"  response="0000000010000000" foes="1110000011111000" cont="0"/>
        <request index="10" response="1000000010000000" foes="1110000011111000" cont="0"/>
        <request index="11" response="1000000010000110" foes="1110000011100110" cont="1"/>
        <request index="12" response="0000000000000110" foes="0000000000000110" cont="0"/>
        <request index="13" response="0000111100001110" foes="0000111110001110" cont="0"/>
        <request index="14" response="0000111100001110" foes="0000111110001110" cont="0"/>
        <request index="15" response="0000111001101110" foes="0000111001101110" cont="1"/>
    </junction>
    <junction id="J7" type="dead_end" x="-22.84" y="-20.44" incLanes="E4_0 E4_1" intLanes="" shape="-22.84,-20.44 -29.24,-20.46 -22.84,-20.44"/>
    <junction id="J8" type="dead_end" x="13.55" y="42.00" incLanes="E5_0 E5_1" intLanes="" shape="13.55,42.00 19.95,42.00 13.55,42.00"/>
    <junction id="J9" type="dead_end" x="13.54" y="-20.96" incLanes="E6_0 E6_1" intLanes="" shape="13.54,-20.96 7.14,-20.96 13.54,-20.96"/>

    <junction id=":J4_16_0" type="internal" x="-23.83" y="18.00" incLanes=":J4_3_0 -E4_0 -E4_1" intLanes=":J4_5_0 :J4_5_1 :J4_7_0 :J4_8_0 :J4_9_0 :J4_9_1 :J4_13_0 :J4_13_1 :J4_15_0"/>
    <junction id=":J4_17_0" type="internal" x="-17.30" y="13.53" incLanes=":J4_7_0 E1_0 E1_1" intLanes=":J4_1_0 :J4_1_1 :J4_3_0 :J4_9_0 :J4_9_1 :J4_11_0 :J4_12_0 :J4_13_0 :J4_13_1"/>
    <junction id=":J4_18_0" type="internal" x="-22.03" y="7.07" incLanes=":J4_11_0 -E2_0 -E2_1" intLanes=":J4_0_0 :J4_1_0 :J4_1_1 :J4_5_0 :J4_5_1 :J4_7_0 :J4_13_0 :J4_13_1 :J4_15_0"/>
    <junction id=":J4_19_0" type="internal" x="-28.26" y="11.67" incLanes=":J4_15_0 -E3_0 -E3_1" intLanes=":J4_1_0 :J4_1_1 :J4_3_0 :J4_4_0 :J4_5_0 :J4_5_1 :J4_9_0 :J4_9_1 :J4_11_0"/>
    <junction id=":J6_16_0" type="internal" x="12.66" y="18.42" incLanes=":J6_3_0 -E6_0 -E6_1" intLanes=":J6_5_0 :J6_5_1 :J6_7_0 :J6_8_0 :J6_9_0 :J6_9_1 :J6_13_0 :J6_13_1 :J6_15_0"/>
    <junction id=":J6_17_0" type="internal" x="18.87" y="13.84" incLanes=":J6_7_0 E3_0 E3_1" intLanes=":J6_1_0 :J6_1_1 :J6_3_0 :J6_9_0 :J6_9_1 :J6_11_0 :J6_12_0 :J6_13_0 :J6_13_1"/>
    <junction id=":J6_18_0" type="internal" x="14.44" y="7.45" incLanes=":J6_11_0 -E5_0 -E5_1" intLanes=":J6_0_0 :J6_1_0 :J6_1_1 :J6_5_0 :J6_5_1 :J6_7_0 :J6_13_0 :J6_13_1 :J6_15_0"/>
    <junction id=":J6_19_0" type="internal" x="7.90" y="11.99" incLanes=":J6_15_0 -E7_0 -E7_1" intLanes=":J6_1_0 :J6_1_1 :J6_3_0 :J6_4_0 :J6_5_0 :J6_5_1 :J6_9_0 :J6_9_1 :J6_11_0"/>

    <connection from="-E2" to="-E1" fromLane="0" toLane="0" via=":J4_0_0" tl="J4" linkIndex="0" dir="r" state="O"/>
    <connection from="-E2" to="E4" fromLane="0" toLane="0" via=":J4_1_0" tl="J4" linkIndex="1" dir="s" state="O"/>
    <connection from="-E2" to="E4" fromLane="1" toLane="1" via=":J4_1_1" tl="J4" linkIndex="2" dir="s" state="O"/>
    <connection from="-E2" to="E3" fromLane="1" toLane="1" via=":J4_3_0" tl="J4" linkIndex="3" dir="l" state="o"/>
    <connection from="-E3" to="E2" fromLane="0" toLane="0" via=":J4_4_0" tl="J4" linkIndex="4" dir="r" state="o"/>
    <connection from="-E3" to="-E1" fromLane="0" toLane="0" via=":J4_5_0" tl="J4" linkIndex="5" dir="s" state="o"/>
    <connection from="-E3" to="-E1" fromLane="1" toLane="1" via=":J4_5_1" tl="J4" linkIndex="6" dir="s" state="o"/>
    <connection from="-E3" to="E4" fromLane="1" toLane="1" via=":J4_7_0" tl="J4" linkIndex="7" dir="l" state="o"/>
    <connection from="-E4" to="E3" fromLane="0" toLane="0" via=":J4_8_0" tl="J4" linkIndex="8" dir="r" state="O"/>
    <connection from="-E4" to="E2" fromLane="0" toLane="0" via=":J4_9_0" tl="J4" linkIndex="9" dir="s" state="O"/>
    <connection from="-E4" to="E2" fromLane="1" toLane="1" via=":J4_9_1" tl="J4" linkIndex="10" dir="s" state="O"/>
    <connection from="-E4" to="-E1" fromLane="1" toLane="1" via=":J4_11_0" tl="J4" linkIndex="11" dir="l" state="o"/>
    <connection from="-E5" to="-E3" fromLane="0" toLane="0" via=":J6_0_0" tl="J6" linkIndex="0" dir="r" state="O"/>
    <connection from="-E5" to="E6" fromLane="0" toLane="0" via=":J6_1_0" tl="J6" linkIndex="1" dir="s" state="O"/>
    <connection from="-E5" to="E6" fromLane="1" toLane="1" via=":J6_1_1" tl="J6" linkIndex="2" dir="s" state="O"/>
    <connection from="-E5" to="E7" fromLane="1" toLane="1" via=":J6_3_0" tl="J6" linkIndex="3" dir="l" state="o"/>
    <connection from="-E6" to="E7" fromLane="0" toLane="0" via=":J6_8_0" tl="J6" linkIndex="8" dir="r" state="O"/>
    <connection from="-E6" to="E5" fromLane="0" toLane="0" via=":J6_9_0" tl="J6" linkIndex="9" dir="s" state="O"/>
    <connection from="-E6" to="E5" fromLane="1" toLane="1" via=":J6_9_1" tl="J6" linkIndex="10" dir="s" state="O"/>
    <connection from="-E6" to="-E3" fromLane="1" toLane="1" via=":J6_11_0" tl="J6" linkIndex="11" dir="l" state="o"/>
    <connection from="-E7" to="E5" fromLane="0" toLane="0" via=":J6_4_0" tl="J6" linkIndex="4" dir="r" state="o"/>
    <connection from="-E7" to="-E3" fromLane="0" toLane="0" via=":J6_5_0" tl="J6" linkIndex="5" dir="s" state="o"/>
    <connection from="-E7" to="-E3" fromLane="1" toLane="1" via=":J6_5_1" tl="J6" linkIndex="6" dir="s" state="o"/>
    <connection from="-E7" to="E6" fromLane="1" toLane="1" via=":J6_7_0" tl="J6" linkIndex="7" dir="l" state="o"/>
    <connection from="E1" to="E4" fromLane="0" toLane="0" via=":J4_12_0" tl="J4" linkIndex="12" dir="r" state="o"/>
    <connection from="E1" to="E3" fromLane="0" toLane="0" via=":J4_13_0" tl="J4" linkIndex="13" dir="s" state="o"/>
    <connection from="E1" to="E3" fromLane="1" toLane="1" via=":J4_13_1" tl="J4" linkIndex="14" dir="s" state="o"/>
    <connection from="E1" to="E2" fromLane="1" toLane="1" via=":J4_15_0" tl="J4" linkIndex="15" dir="l" state="o"/>
    <connection from="E3" to="E6" fromLane="0" toLane="0" via=":J6_12_0" tl="J6" linkIndex="12" dir="r" state="o"/>
    <connection from="E3" to="E7" fromLane="0" toLane="0" via=":J6_13_0" tl="J6" linkIndex="13" dir="s" state="o"/>
    <connection from="E3" to="E7" fromLane="1" toLane="1" via=":J6_13_1" tl="J6" linkIndex="14" dir="s" state="o"/>
    <connection from="E3" to="E5" fromLane="1" toLane="1" via=":J6_15_0" tl="J6" linkIndex="15" dir="l" state="o"/>

    <connection from=":J4_0" to="-E1" fromLane="0" toLane="0" dir="r" state="M"/>
    <connection from=":J4_1" to="E4" fromLane="0" toLane="0" dir="s" state="M"/>
    <connection from=":J4_1" to="E4" fromLane="1" toLane="1" dir="s" state="M"/>
    <connection from=":J4_3" to="E3" fromLane="0" toLane="1" via=":J4_16_0" dir="l" state="m"/>
    <connection from=":J4_16" to="E3" fromLane="0" toLane="1" dir="l" state="M"/>
    <connection from=":J4_4" to="E2" fromLane="0" toLane="0" dir="r" state="M"/>
    <connection from=":J4_5" to="-E1" fromLane="0" toLane="0" dir="s" state="M"/>
    <connection from=":J4_5" to="-E1" fromLane="1" toLane="1" dir="s" state="M"/>
    <connection from=":J4_7" to="E4" fromLane="0" toLane="1" via=":J4_17_0" dir="l" state="m"/>
    <connection from=":J4_17" to="E4" fromLane="0" toLane="1" dir="l" state="M"/>
    <connection from=":J4_8" to="E3" fromLane="0" toLane="0" dir="r" state="M"/>
    <connection from=":J4_9" to="E2" fromLane="0" toLane="0" dir="s" state="M"/>
    <connection from=":J4_9" to="E2" fromLane="1" toLane="1" dir="s" state="M"/>
    <connection from=":J4_11" to="-E1" fromLane="0" toLane="1" via=":J4_18_0" dir="l" state="m"/>
    <connection from=":J4_18" to="-E1" fromLane="0" toLane="1" dir="l" state="M"/>
    <connection from=":J4_12" to="E4" fromLane="0" toLane="0" dir="r" state="M"/>
    <connection from=":J4_13" to="E3" fromLane="0" toLane="0" dir="s" state="M"/>
    <connection from=":J4_13" to="E3" fromLane="1" toLane="1" dir="s" state="M"/>
    <connection from=":J4_15" to="E2" fromLane="0" toLane="1" via=":J4_19_0" dir="l" state="m"/>
    <connection from=":J4_19" to="E2" fromLane="0" toLane="1" dir="l" state="M"/>
    <connection from=":J6_0" to="-E3" fromLane="0" toLane="0" dir="r" state="M"/>
    <connection from=":J6_1" to="E6" fromLane="0" toLane="0" dir="s" state="M"/>
    <connection from=":J6_1" to="E6" fromLane="1" toLane="1" dir="s" state="M"/>
    <connection from=":J6_3" to="E7" fromLane="0" toLane="1" via=":J6_16_0" dir="l" state="m"/>
    <connection from=":J6_16" to="E7" fromLane="0" toLane="1" dir="l" state="M"/>
    <connection from=":J6_4" to="E5" fromLane="0" toLane="0" dir="r" state="M"/>
    <connection from=":J6_5" to="-E3" fromLane="0" toLane="0" dir="s" state="M"/>
    <connection from=":J6_5" to="-E3" fromLane="1" toLane="1" dir="s" state="M"/>
    <connection from=":J6_7" to="E6" fromLane="0" toLane="1" via=":J6_17_0" dir="l" state="m"/>
    <connection from=":J6_17" to="E6" fromLane="0" toLane="1" dir="l" state="M"/>
    <connection from=":J6_8" to="E7" fromLane="0" toLane="0" dir="r" state="M"/>
    <connection from=":J6_9" to="E5" fromLane="0" toLane="0" dir="s" state="M"/>
    <connection from=":J6_9" to="E5" fromLane="1" toLane="1" dir="s" state="M"/>
    <connection from=":J6_11" to="-E3" fromLane="0" toLane="1" via=":J6_18_0" dir="l" state="m"/>
    <connection from=":J6_18" to="-E3" fromLane="0" toLane="1" dir="l" state="M"/>
    <connection from=":J6_12" to="E6" fromLane="0" toLane="0" dir="r" state="M"/>
    <connection from=":J6_13" to="E7" fromLane="0" toLane="0" dir="s" state="M"/>
    <connection from=":J6_13" to="E7" fromLane="1" toLane="1" dir="s" state="M"/>
    <connection from=":J6_15" to="E5" fromLane="0" toLane="1" via=":J6_19_0" dir="l" state="m"/>
    <connection from=":J6_19" to="E5" fromLane="0" toLane="1" dir="l" state="M"/>

</net>
