<?xml version="1.0" encoding="UTF-8"?>

<!-- generated on 2026-02-03 16:42:09.010745 by Eclipse SUMO randomTrips.py v1.26.0
<configuration>
    <net-file value="draft02.net.xml"/>
    <route-file value="draft02.rou.xml"/>
    <trip-attributes value="type=&quot;civilian_car&quot;"/>
    <end value="600.0"/>
    <period value="4.0"/>
</configuration>
-->

<!-- generated on 2026-02-03T16:42:09.000935+05:30 by Eclipse SUMO duarouter 1.26.0
<duarouterConfiguration xmlns:xsi="http://www.w3.org/2001/XMLSchema-instance" xsi:noNamespaceSchemaLocation="http://sumo.dlr.de/xsd/duarouterConfiguration.xsd">

    <input>
        <net-file value="draft02.net.xml"/>
        <route-files value="trips.trips.xml"/>
    </input>

    <output>
        <output-file value="draft02.rou.xml"/>
        <alternatives-output value="NUL"/>
    </output>

    <time>
        <begin value="0"/>
        <end value="600.0"/>
    </time>

    <report>
        <no-warnings value="true"/>
        <ignore-errors value="true"/>
        <no-step-log value="true"/>
    </report>

</duarouterConfiguration>
-->

<routes xmlns:xsi="http://www.w3.org/2001/XMLSchema-instance" xsi:noNamespaceSchemaLocation="http://sumo.dlr.de/xsd/routes_file.xsd">
    <vehicle id="0" type="civilian_car" depart="0.00">
        <route edges="-E7 -E3 -E1"/>
    </vehicle>
    <vehicle id="1" type="civilian_car" depart="4.00">
        <route edges="-E7 E5"/>
    </vehicle>
    <vehicle id="2" type="civilian_car" depart="8.00">
        <route edges="-E5 -E3 -E1"/>
    </vehicle>
    <vehicle id="3" type="civilian_car" depart="12.00">
        <route edges="-E3 E4"/>
    </vehicle>
    <vehicle id="4" type="civilian_car" depart="16.00">
        <route edges="-E7 -E3 E4"/>
    </vehicle>
    <vehicle id="5" type="civilian_car" depart="20.00">
        <route edges="-E3 E4"/>
    </vehicle>
    <vehicle id="6" type="civilian_car" depart="24.00">
        <route edges="E1 E3 E5"/>
    </vehicle>
    <vehicle id="7" type="civilian_car" depart="28.00">
        <route edges="-E2 -E1"/>
    </vehicle>
    <vehicle id="8" type="civilian_car" depart="32.00">
        <route edges="E1 E4"/>
    </vehicle>
    <vehicle id="9" type="civilian_car" depart="36.00">
        <route edges="E1 E3 E5"/>
    </vehicle>
    <vehicle id="10" type="civilian_car" depart="40.00">
        <route edges="-E6 E7"/>
    </vehicle>
    <vehicle id="11" type="civilian_car" depart="44.00">
        <route edges="-E5 -E3 E4"/>
    </vehicle>
    <vehicle id="12" type="civilian_car" depart="48.00">
        <route edges="E1 E4"/>
    </vehicle>
    <vehicle id="13" type="civilian_car" depart="52.00">
        <route edges="E1 E4"/>
    </vehicle>
    <vehicle id="14" type="civilian_car" depart="56.00">
        <route edges="-E7 -E3 -E1"/>
    </vehicle>
    <vehicle id="15" type="civilian_car" depart="60.00">
        <route edges="-E3 E2"/>
    </vehicle>
    <vehicle id="16" type="civilian_car" depart="64.00">
        <route edges="-E7 -E3 E2"/>
    </vehicle>
    <vehicle id="17" type="civilian_car" depart="68.00">
        <route edges="-E4 E3 E7"/>
    </vehicle>
    <vehicle id="18" type="civilian_car" depart="72.00">
        <route edges="-E7 -E3 E4"/>
    </vehicle>
    <vehicle id="19" type="civilian_car" depart="76.00">
        <route edges="E3 E5"/>
    </vehicle>
    <vehicle id="20" type="civilian_car" depart="80.00">
        <route edges="-E6 E5"/>
    </vehicle>
    <vehicle id="21" type="civilian_car" depart="84.00">
        <route edges="E1 E3 E6"/>
    </vehicle>
    <vehicle id="22" type="civilian_car" depart="88.00">
        <route edges="-E3 -E1"/>
    </vehicle>
    <vehicle id="23" type="civilian_car" depart="92.00">
        <route edges="-E4 E2"/>
    </vehicle>
    <vehicle id="24" type="civilian_car" depart="96.00">
        <route edges="E3"/>
    </vehicle>
    <vehicle id="25" type="civilian_car" depart="100.00">
        <route edges="-E6 -E3 E2"/>
    </vehicle>
    <vehicle id="26" type="civilian_car" depart="104.00">
        <route edges="-E6 E7"/>
    </vehicle>
    <vehicle id="27" type="civilian_car" depart="108.00">
        <route edges="-E5 -E3"/>
    </vehicle>
    <vehicle id="28" type="civilian_car" depart="112.00">
        <route edges="-E2 -E1"/>
    </vehicle>
    <vehicle id="29" type="civilian_car" depart="116.00">
        <route edges="-E2 E3 E5"/>
    </vehicle>
    <vehicle id="30" type="civilian_car" depart="120.00">
        <route edges="E1 E3"/>
    </vehicle>
    <vehicle id="31" type="civilian_car" depart="124.00">
        <route edges="-E2 E3"/>
    </vehicle>
    <vehicle id="32" type="civilian_car" depart="128.00">
        <route edges="E3 E6"/>
    </vehicle>
    <vehicle id="33" type="civilian_car" depart="132.00">
        <route edges="-E2 E3 E5"/>
    </vehicle>
    <vehicle id="34" type="civilian_car" depart="136.00">
        <route edges="-E7 -E3 E4"/>
    </vehicle>
    <vehicle id="35" type="civilian_car" depart="140.00">
        <route edges="-E4 E3 E5"/>
    </vehicle>
    <vehicle id="36" type="civilian_car" depart="144.00">
        <route edges="-E2 E3"/>
    </vehicle>
    <vehicle id="37" type="civilian_car" depart="148.00">
        <route edges="-E5 E7"/>
    </vehicle>
    <vehicle id="38" type="civilian_car" depart="152.00">
        <route edges="-E6 -E3"/>
    </vehicle>
    <vehicle id="39" type="civilian_car" depart="156.00">
        <route edges="E3 E6"/>
    </vehicle>
    <vehicle id="40" type="civilian_car" depart="160.00">
        <route edges="-E4 E3 E5"/>
    </vehicle>
    <vehicle id="41" type="civilian_car" depart="164.00">
        <route edges="-E6 -E3"/>
    </vehicle>
    <vehicle id="42" type="civilian_car" depart="168.00">
        <route edges="E1 E4"/>
    </vehicle>
    <vehicle id="43" type="civilian_car" depart="172.00">
        <route edges="E1 E4"/>
    </vehicle>
    <vehicle id="44" type="civilian_car" depart="176.00">
        <route edges="-E2 E3 E7"/>
    </vehicle>
    <vehicle id="45" type="civilian_car" depart="180.00">
        <route edges="E3 E6"/>
    </vehicle>
    <vehicle id="46" type="civilian_car" depart="184.00">
        <route edges="-E4 -E1"/>
    </vehicle>
    <vehicle id="47" type="civilian_car" depart="188.00">
        <route edges="E3 E7"/>
    </vehicle>
    <vehicle id="48" type="civilian_car" depart="192.00">
        <route edges="-E2 E3"/>
    </vehicle>
    <vehicle id="49" type="civilian_car" depart="196.00">
        <route edges="-E2 E3 E6"/>
    </vehicle>
    <vehicle id="50" type="civilian_car" depart="200.00">
        <route edges="-E5 -E3 E4"/>
    </vehicle>
    <vehicle id="51" type="civilian_car" depart="204.00">
        <route edges="-E4 E3 E6"/>
    </vehicle>
    <vehicle id="52" type="civilian_car" depart="208.00">
        <route edges="-E5 -E3"/>
    </vehicle>
    <vehicle id="53" type="civilian_car" depart="212.00">
        <route edges="-E6 E5"/>
    </vehicle>
    <vehicle id="54" type="civilian_car" depart="216.00">
        <route edges="-E3 E2"/>
    </vehicle>
    <vehicle id="55" type="civilian_car" depart="220.00">
        <route edges="E3 E5"/>
    </vehicle>
    <vehicle id="56" type="civilian_car" depart="224.00">
        <route edges="-E5 -E3 E4"/>
    </vehicle>
    <vehicle id="57" type="civilian_car" depart="228.00">
        <route edges="-E3"/>
    </vehicle>
    <vehicle id="58" type="civilian_car" depart="232.00">
        <route edges="-E2 E3 E5"/>
    </vehicle>
    <vehicle id="59" type="civilian_car" depart="236.00">
        <route edges="-E3"/>
    </vehicle>
    <vehicle id="60" type="civilian_car" depart="240.00">
        <route edges="-E5 E6"/>
    </vehicle>
    <vehicle id="61" type="civilian_car" depart="244.00">
        <route edges="-E2 E3"/>
    </vehicle>
    <vehicle id="62" type="civilian_car" depart="248.00">
        <route edges="-E7 E5"/>
    </vehicle>
    <vehicle id="63" type="civilian_car" depart="252.00">
        <route edges="-E5 -E3 E2"/>
    </vehicle>
    <vehicle id="64" type="civilian_car" depart="256.00">
        <route edges="-E5 -E3 E2"/>
    </vehicle>
    <vehicle id="65" type="civilian_car" depart="260.00">
        <route edges="-E5 E6"/>
    </vehicle>
    <vehicle id="66" type="civilian_car" depart="264.00">
        <route edges="-E6 -E3 -E1"/>
    </vehicle>
    <vehicle id="67" type="civilian_car" depart="268.00">
        <route edges="E3 E6"/>
    </vehicle>
    <vehicle id="68" type="civilian_car" depart="272.00">
        <route edges="E3 E7"/>
    </vehicle>
    <vehicle id="69" type="civilian_car" depart="276.00">
        <route edges="-E5 -E3"/>
    </vehicle>
    <vehicle id="70" type="civilian_car" depart="280.00">
        <route edges="-E5 -E3 -E1"/>
    </vehicle>
    <vehicle id="71" type="civilian_car" depart="284.00">
        <route edges="-E5 E7"/>
    </vehicle>
    <vehicle id="72" type="civilian_car" depart="288.00">
        <route edges="-E4 E3 E6"/>
    </vehicle>
    <vehicle id="73" type="civilian_car" depart="292.00">
        <route edges="E3 E7"/>
    </vehicle>
    <vehicle id="74" type="civilian_car" depart="296.00">
        <route edges="-E6 E5"/>
    </vehicle>
    <vehicle id="75" type="civilian_car" depart="300.00">
        <route edges="-E3 E2"/>
    </vehicle>
    <vehicle id="76" type="civilian_car" depart="304.00">
        <route edges="-E6 E5"/>
    </vehicle>
    <vehicle id="77" type="civilian_car" depart="308.00">
        <route edges="-E2 E4"/>
    </vehicle>
    <vehicle id="78" type="civilian_car" depart="312.00">
        <route edges="-E6 E5"/>
    </vehicle>
    <vehicle id="79" type="civilian_car" depart="316.00">
        <route edges="-E3 -E1"/>
    </vehicle>
    <vehicle id="80" type="civilian_car" depart="320.00">
        <route edges="-E6 -E3 E4"/>
    </vehicle>
    <vehicle id="81" type="civilian_car" depart="324.00">
        <route edges="-E5 -E3 E4"/>
    </vehicle>
    <vehicle id="82" type="civilian_car" depart="328.00">
        <route edges="-E6 E7"/>
    </vehicle>
    <vehicle id="83" type="civilian_car" depart="332.00">
        <route edges="-E7 -E3 E2"/>
    </vehicle>
    <vehicle id="84" type="civilian_car" depart="336.00">
        <route edges="-E4 E3 E6"/>
    </vehicle>
    <vehicle id="85" type="civilian_car" depart="340.00">
        <route edges="-E2 E3"/>
    </vehicle>
    <vehicle id="86" type="civilian_car" depart="344.00">
        <route edges="E3 E7"/>
    </vehicle>
    <vehicle id="87" type="civilian_car" depart="348.00">
        <route edges="-E4 E3 E7"/>
    </vehicle>
    <vehicle id="88" type="civilian_car" depart="352.00">
        <route edges="E3 E7"/>
    </vehicle>
    <vehicle id="89" type="civilian_car" depart="356.00">
        <route edges="E1 E3 E5"/>
    </vehicle>
    <vehicle id="90" type="civilian_car" depart="360.00">
        <route edges="-E6 E7"/>
    </vehicle>
    <vehicle id="91" type="civilian_car" depart="364.00">
        <route edges="-E7 -E3 -E1"/>
    </vehicle>
    <vehicle id="92" type="civilian_car" depart="368.00">
        <route edges="E1 E2"/>
    </vehicle>
    <vehicle id="93" type="civilian_car" depart="372.00">
        <route edges="-E3 -E1"/>
    </vehicle>
    <vehicle id="94" type="civilian_car" depart="376.00">
        <route edges="-E2 E4"/>
    </vehicle>
    <vehicle id="95" type="civilian_car" depart="380.00">
        <route edges="-E7 -E3"/>
    </vehicle>
    <vehicle id="96" type="civilian_car" depart="384.00">
        <route edges="-E7 -E3 E2"/>
    </vehicle>
    <vehicle id="97" type="civilian_car" depart="388.00">
        <route edges="-E5 E7"/>
    </vehicle>
    <vehicle id="98" type="civilian_car" depart="392.00">
        <route edges="-E5 -E3 E2"/>
    </vehicle>
    <vehicle id="99" type="civilian_car" depart="396.00">
        <route edges="-E2 E3 E6"/>
    </vehicle>
    <vehicle id="100" type="civilian_car" depart="400.00">
        <route edges="-E7 -E3 E2"/>
    </vehicle>
    <vehicle id="101" type="civilian_car" depart="404.00">
        <route edges="-E7 -E3 E4"/>
    </vehicle>
    <vehicle id="102" type="civilian_car" depart="408.00">
        <route edges="-E5 -E3 -E1"/>
    </vehicle>
    <vehicle id="103" type="civilian_car" depart="412.00">
        <route edges="-E2 E3 E7"/>
    </vehicle>
    <vehicle id="104" type="civilian_car" depart="416.00">
        <route edges="E1 E4"/>
    </vehicle>
    <vehicle id="105" type="civilian_car" depart="420.00">
        <route edges="-E3"/>
    </vehicle>
    <vehicle id="106" type="civilian_car" depart="424.00">
        <route edges="-E4 E3 E7"/>
    </vehicle>
    <vehicle id="107" type="civilian_car" depart="428.00">
        <route edges="E1 E3 E6"/>
    </vehicle>
    <vehicle id="108" type="civilian_car" depart="432.00">
        <route edges="-E3 -E1"/>
    </vehicle>
    <vehicle id="109" type="civilian_car" depart="436.00">
        <route edges="E1 E3 E7"/>
    </vehicle>
    <vehicle id="110" type="civilian_car" depart="440.00">
        <route edges="-E5 -E3 E4"/>
    </vehicle>
    <vehicle id="111" type="civilian_car" depart="444.00">
        <route edges="E1 E3 E7"/>
    </vehicle>
    <vehicle id="112" type="civilian_car" depart="448.00">
        <route edges="E1 E3 E7"/>
    </vehicle>
    <vehicle id="113" type="civilian_car" depart="452.00">
        <route edges="-E2 E3 E5"/>
    </vehicle>
    <vehicle id="114" type="civilian_car" depart="456.00">
        <route edges="-E4 E3 E7"/>
    </vehicle>
    <vehicle id="115" type="civilian_car" depart="460.00">
        <route edges="E1 E3 E6"/>
    </vehicle>
    <vehicle id="116" type="civilian_car" depart="464.00">
        <route edges="E1 E2"/>
    </vehicle>
    <vehicle id="117" type="civilian_car" depart="468.00">
        <route edges="E1 E3 E6"/>
    </vehicle>
    <vehicle id="118" type="civilian_car" depart="472.00">
        <route edges="-E5 -E3 E2"/>
    </vehicle>
    <vehicle id="119" type="civilian_car" depart="476.00">
        <route edges="-E4 E3 E6"/>
    </vehicle>
    <vehicle id="120" type="civilian_car" depart="480.00">
        <route edges="-E2 E3"/>
    </vehicle>
    <vehicle id="121" type="civilian_car" depart="484.00">
        <route edges="-E7 -E3 E2"/>
    </vehicle>
    <vehicle id="122" type="civilian_car" depart="488.00">
        <route edges="-E6 -E3 E4"/>
    </vehicle>
    <vehicle id="123" type="civilian_car" depart="492.00">
        <route edges="-E5 -E3 E4"/>
    </vehicle>
    <vehicle id="124" type="civilian_car" depart="496.00">
        <route edges="-E4 E3 E5"/>
    </vehicle>
    <vehicle id="125" type="civilian_car" depart="500.00">
        <route edges="-E2 E3 E7"/>
    </vehicle>
    <vehicle id="126" type="civilian_car" depart="504.00">
        <route edges="-E6 E5"/>
    </vehicle>
    <vehicle id="127" type="civilian_car" depart="508.00">
        <route edges="-E7 E5"/>
    </vehicle>
    <vehicle id="128" type="civilian_car" depart="512.00">
        <route edges="-E4 -E1"/>
    </vehicle>
    <vehicle id="129" type="civilian_car" depart="516.00">
        <route edges="-E7 -E3 E2"/>
    </vehicle>
    <vehicle id="130" type="civilian_car" depart="520.00">
        <route edges="-E4 E3 E6"/>
    </vehicle>
    <vehicle id="131" type="civilian_car" depart="524.00">
        <route edges="-E7 -E3 E2"/>
    </vehicle>
    <vehicle id="132" type="civilian_car" depart="528.00">
        <route edges="-E4 E3"/>
    </vehicle>
    <vehicle id="133" type="civilian_car" depart="532.00">
        <route edges="-E5 -E3 E2"/>
    </vehicle>
    <vehicle id="134" type="civilian_car" depart="536.00">
        <route edges="E3 E5"/>
    </vehicle>
    <vehicle id="135" type="civilian_car" depart="540.00">
        <route edges="-E5 -E3 E4"/>
    </vehicle>
    <vehicle id="136" type="civilian_car" depart="544.00">
        <route edges="-E5 -E3"/>
    </vehicle>
    <vehicle id="137" type="civilian_car" depart="548.00">
        <route edges="-E5 E7"/>
    </vehicle>
    <vehicle id="138" type="civilian_car" depart="552.00">
        <route edges="-E2 E4"/>
    </vehicle>
    <vehicle id="139" type="civilian_car" depart="556.00">
        <route edges="-E7 -E3 E2"/>
    </vehicle>
    <vehicle id="140" type="civilian_car" depart="560.00">
        <route edges="E1 E3 E6"/>
    </vehicle>
    <vehicle id="141" type="civilian_car" depart="564.00">
        <route edges="-E7 -E3"/>
    </vehicle>
    <vehicle id="142" type="civilian_car" depart="568.00">
        <route edges="-E3 -E1"/>
    </vehicle>
    <vehicle id="143" type="civilian_car" depart="572.00">
        <route edges="-E5 -E3"/>
    </vehicle>
    <vehicle id="144" type="civilian_car" depart="576.00">
        <route edges="-E7 -E3 -E1"/>
    </vehicle>
    <vehicle id="145" type="civilian_car" depart="580.00">
        <route edges="E1 E3 E6"/>
    </vehicle>
    <vehicle id="146" type="civilian_car" depart="584.00">
        <route edges="-E2 E3"/>
    </vehicle>
    <vehicle id="147" type="civilian_car" depart="588.00">
        <route edges="-E6 -E3 -E1"/>
    </vehicle>
    <vehicle id="148" type="civilian_car" depart="592.00">
        <route edges="-E5 E6"/>
    </vehicle>
    <vehicle id="149" type="civilian_car" depart="596.00">
        <route edges="-E6 E7"/>
    </vehicle>
</routes>
