<?xml version="1.0" encoding="UTF-8"?>

<!-- generated on 2026-01-23T10:30:15.119808+05:30 by Eclipse SUMO netedit 1.25.0
-->

<routes xmlns:xsi="http://www.w3.org/2001/XMLSchema-instance" xsi:noNamespaceSchemaLocation="http://sumo.dlr.de/xsd/routes_file.xsd">
    <!-- Vehicles, persons and containers (sorted by depart) -->
    <trip id="t_0" depart="0.00" from="-E1" to="-E1"/>
    <trip id="t_1" depart="0.00" from="-E1" to="-E1"/>
    <trip id="t_10" depart="0.00" from="E5" to="E5"/>
    <trip id="t_11" depart="0.00" from="E6" to="E6"/>
    <trip id="t_12" depart="0.00" from="-E6" to="-E6"/>
    <trip id="t_13" depart="0.00" from="-E7" to="-E7"/>
    <trip id="t_14" depart="0.00" from="E7" to="E7"/>
    <trip id="t_15" depart="0.00" from="-E4" to="-E4"/>
    <trip id="t_16" depart="0.00" from="-E4" to="-E1"/>
    <trip id="t_17" depart="0.00" from="-E4" to="-E1"/>
    <trip id="t_18" depart="0.00" from="-E4" to="-E1"/>
    <trip id="t_2" depart="0.00" from="-E1" to="-E1"/>
    <trip id="t_3" depart="0.00" from="-E1" to="-E1"/>
    <trip id="t_4" depart="0.00" from="E1" to="E1"/>
    <trip id="t_5" depart="0.00" from="E4" to="E4"/>
    <trip id="t_6" depart="0.00" from="E2" to="E2"/>
    <trip id="t_7" depart="0.00" from="-E2" to="-E2"/>
    <trip id="t_8" depart="0.00" from="-E4" to="-E4"/>
    <trip id="t_9" depart="0.00" from="-E5" to="-E5"/>
</routes>
