<?xml version="1.0" encoding="UTF-8"?>

<!-- generated on 2026-02-03 16:42:08.918220 by Eclipse SUMO randomTrips.py v1.26.0
<configuration>
    <net-file value="draft02.net.xml"/>
    <route-file value="draft02.rou.xml"/>
    <trip-attributes value="type=&quot;civilian_car&quot;"/>
    <end value="600.0"/>
    <period value="4.0"/>
</configuration>
-->

<routes xmlns:xsi="http://www.w3.org/2001/XMLSchema-instance" xsi:noNamespaceSchemaLocation="http://sumo.dlr.de/xsd/routes_file.xsd">
    <trip id="0" depart="0.00" from="-E7" to="-E1" type="civilian_car"/>
    <trip id="1" depart="4.00" from="-E7" to="E5" type="civilian_car"/>
    <trip id="2" depart="8.00" from="-E5" to="-E1" type="civilian_car"/>
    <trip id="3" depart="12.00" from="-E3" to="E4" type="civilian_car"/>
    <trip id="4" depart="16.00" from="-E7" to="E4" type="civilian_car"/>
    <trip id="5" depart="20.00" from="-E3" to="E4" type="civilian_car"/>
    <trip id="6" depart="24.00" from="E1" to="E5" type="civilian_car"/>
    <trip id="7" depart="28.00" from="-E2" to="-E1" type="civilian_car"/>
    <trip id="8" depart="32.00" from="E1" to="E4" type="civilian_car"/>
    <trip id="9" depart="36.00" from="E1" to="E5" type="civilian_car"/>
    <trip id="10" depart="40.00" from="-E6" to="E7" type="civilian_car"/>
    <trip id="11" depart="44.00" from="-E5" to="E4" type="civilian_car"/>
    <trip id="12" depart="48.00" from="E1" to="E4" type="civilian_car"/>
    <trip id="13" depart="52.00" from="E1" to="E4" type="civilian_car"/>
    <trip id="14" depart="56.00" from="-E7" to="-E1" type="civilian_car"/>
    <trip id="15" depart="60.00" from="-E3" to="E2" type="civilian_car"/>
    <trip id="16" depart="64.00" from="-E7" to="E2" type="civilian_car"/>
    <trip id="17" depart="68.00" from="-E4" to="E7" type="civilian_car"/>
    <trip id="18" depart="72.00" from="-E7" to="E4" type="civilian_car"/>
    <trip id="19" depart="76.00" from="E3" to="E5" type="civilian_car"/>
    <trip id="20" depart="80.00" from="-E6" to="E5" type="civilian_car"/>
    <trip id="21" depart="84.00" from="E1" to="E6" type="civilian_car"/>
    <trip id="22" depart="88.00" from="-E3" to="-E1" type="civilian_car"/>
    <trip id="23" depart="92.00" from="-E4" to="E2" type="civilian_car"/>
    <trip id="24" depart="96.00" from="E3" to="E3" type="civilian_car"/>
    <trip id="25" depart="100.00" from="-E6" to="E2" type="civilian_car"/>
    <trip id="26" depart="104.00" from="-E6" to="E7" type="civilian_car"/>
    <trip id="27" depart="108.00" from="-E5" to="-E3" type="civilian_car"/>
    <trip id="28" depart="112.00" from="-E2" to="-E1" type="civilian_car"/>
    <trip id="29" depart="116.00" from="-E2" to="E5" type="civilian_car"/>
    <trip id="30" depart="120.00" from="E1" to="E3" type="civilian_car"/>
    <trip id="31" depart="124.00" from="-E2" to="E3" type="civilian_car"/>
    <trip id="32" depart="128.00" from="E3" to="E6" type="civilian_car"/>
    <trip id="33" depart="132.00" from="-E2" to="E5" type="civilian_car"/>
    <trip id="34" depart="136.00" from="-E7" to="E4" type="civilian_car"/>
    <trip id="35" depart="140.00" from="-E4" to="E5" type="civilian_car"/>
    <trip id="36" depart="144.00" from="-E2" to="E3" type="civilian_car"/>
    <trip id="37" depart="148.00" from="-E5" to="E7" type="civilian_car"/>
    <trip id="38" depart="152.00" from="-E6" to="-E3" type="civilian_car"/>
    <trip id="39" depart="156.00" from="E3" to="E6" type="civilian_car"/>
    <trip id="40" depart="160.00" from="-E4" to="E5" type="civilian_car"/>
    <trip id="41" depart="164.00" from="-E6" to="-E3" type="civilian_car"/>
    <trip id="42" depart="168.00" from="E1" to="E4" type="civilian_car"/>
    <trip id="43" depart="172.00" from="E1" to="E4" type="civilian_car"/>
    <trip id="44" depart="176.00" from="-E2" to="E7" type="civilian_car"/>
    <trip id="45" depart="180.00" from="E3" to="E6" type="civilian_car"/>
    <trip id="46" depart="184.00" from="-E4" to="-E1" type="civilian_car"/>
    <trip id="47" depart="188.00" from="E3" to="E7" type="civilian_car"/>
    <trip id="48" depart="192.00" from="-E2" to="E3" type="civilian_car"/>
    <trip id="49" depart="196.00" from="-E2" to="E6" type="civilian_car"/>
    <trip id="50" depart="200.00" from="-E5" to="E4" type="civilian_car"/>
    <trip id="51" depart="204.00" from="-E4" to="E6" type="civilian_car"/>
    <trip id="52" depart="208.00" from="-E5" to="-E3" type="civilian_car"/>
    <trip id="53" depart="212.00" from="-E6" to="E5" type="civilian_car"/>
    <trip id="54" depart="216.00" from="-E3" to="E2" type="civilian_car"/>
    <trip id="55" depart="220.00" from="E3" to="E5" type="civilian_car"/>
    <trip id="56" depart="224.00" from="-E5" to="E4" type="civilian_car"/>
    <trip id="57" depart="228.00" from="-E3" to="-E3" type="civilian_car"/>
    <trip id="58" depart="232.00" from="-E2" to="E5" type="civilian_car"/>
    <trip id="59" depart="236.00" from="-E3" to="-E3" type="civilian_car"/>
    <trip id="60" depart="240.00" from="-E5" to="E6" type="civilian_car"/>
    <trip id="61" depart="244.00" from="-E2" to="E3" type="civilian_car"/>
    <trip id="62" depart="248.00" from="-E7" to="E5" type="civilian_car"/>
    <trip id="63" depart="252.00" from="-E5" to="E2" type="civilian_car"/>
    <trip id="64" depart="256.00" from="-E5" to="E2" type="civilian_car"/>
    <trip id="65" depart="260.00" from="-E5" to="E6" type="civilian_car"/>
    <trip id="66" depart="264.00" from="-E6" to="-E1" type="civilian_car"/>
    <trip id="67" depart="268.00" from="E3" to="E6" type="civilian_car"/>
    <trip id="68" depart="272.00" from="E3" to="E7" type="civilian_car"/>
    <trip id="69" depart="276.00" from="-E5" to="-E3" type="civilian_car"/>
    <trip id="70" depart="280.00" from="-E5" to="-E1" type="civilian_car"/>
    <trip id="71" depart="284.00" from="-E5" to="E7" type="civilian_car"/>
    <trip id="72" depart="288.00" from="-E4" to="E6" type="civilian_car"/>
    <trip id="73" depart="292.00" from="E3" to="E7" type="civilian_car"/>
    <trip id="74" depart="296.00" from="-E6" to="E5" type="civilian_car"/>
    <trip id="75" depart="300.00" from="-E3" to="E2" type="civilian_car"/>
    <trip id="76" depart="304.00" from="-E6" to="E5" type="civilian_car"/>
    <trip id="77" depart="308.00" from="-E2" to="E4" type="civilian_car"/>
    <trip id="78" depart="312.00" from="-E6" to="E5" type="civilian_car"/>
    <trip id="79" depart="316.00" from="-E3" to="-E1" type="civilian_car"/>
    <trip id="80" depart="320.00" from="-E6" to="E4" type="civilian_car"/>
    <trip id="81" depart="324.00" from="-E5" to="E4" type="civilian_car"/>
    <trip id="82" depart="328.00" from="-E6" to="E7" type="civilian_car"/>
    <trip id="83" depart="332.00" from="-E7" to="E2" type="civilian_car"/>
    <trip id="84" depart="336.00" from="-E4" to="E6" type="civilian_car"/>
    <trip id="85" depart="340.00" from="-E2" to="E3" type="civilian_car"/>
    <trip id="86" depart="344.00" from="E3" to="E7" type="civilian_car"/>
    <trip id="87" depart="348.00" from="-E4" to="E7" type="civilian_car"/>
    <trip id="88" depart="352.00" from="E3" to="E7" type="civilian_car"/>
    <trip id="89" depart="356.00" from="E1" to="E5" type="civilian_car"/>
    <trip id="90" depart="360.00" from="-E6" to="E7" type="civilian_car"/>
    <trip id="91" depart="364.00" from="-E7" to="-E1" type="civilian_car"/>
    <trip id="92" depart="368.00" from="E1" to="E2" type="civilian_car"/>
    <trip id="93" depart="372.00" from="-E3" to="-E1" type="civilian_car"/>
    <trip id="94" depart="376.00" from="-E2" to="E4" type="civilian_car"/>
    <trip id="95" depart="380.00" from="-E7" to="-E3" type="civilian_car"/>
    <trip id="96" depart="384.00" from="-E7" to="E2" type="civilian_car"/>
    <trip id="97" depart="388.00" from="-E5" to="E7" type="civilian_car"/>
    <trip id="98" depart="392.00" from="-E5" to="E2" type="civilian_car"/>
    <trip id="99" depart="396.00" from="-E2" to="E6" type="civilian_car"/>
    <trip id="100" depart="400.00" from="-E7" to="E2" type="civilian_car"/>
    <trip id="101" depart="404.00" from="-E7" to="E4" type="civilian_car"/>
    <trip id="102" depart="408.00" from="-E5" to="-E1" type="civilian_car"/>
    <trip id="103" depart="412.00" from="-E2" to="E7" type="civilian_car"/>
    <trip id="104" depart="416.00" from="E1" to="E4" type="civilian_car"/>
    <trip id="105" depart="420.00" from="-E3" to="-E3" type="civilian_car"/>
    <trip id="106" depart="424.00" from="-E4" to="E7" type="civilian_car"/>
    <trip id="107" depart="428.00" from="E1" to="E6" type="civilian_car"/>
    <trip id="108" depart="432.00" from="-E3" to="-E1" type="civilian_car"/>
    <trip id="109" depart="436.00" from="E1" to="E7" type="civilian_car"/>
    <trip id="110" depart="440.00" from="-E5" to="E4" type="civilian_car"/>
    <trip id="111" depart="444.00" from="E1" to="E7" type="civilian_car"/>
    <trip id="112" depart="448.00" from="E1" to="E7" type="civilian_car"/>
    <trip id="113" depart="452.00" from="-E2" to="E5" type="civilian_car"/>
    <trip id="114" depart="456.00" from="-E4" to="E7" type="civilian_car"/>
    <trip id="115" depart="460.00" from="E1" to="E6" type="civilian_car"/>
    <trip id="116" depart="464.00" from="E1" to="E2" type="civilian_car"/>
    <trip id="117" depart="468.00" from="E1" to="E6" type="civilian_car"/>
    <trip id="118" depart="472.00" from="-E5" to="E2" type="civilian_car"/>
    <trip id="119" depart="476.00" from="-E4" to="E6" type="civilian_car"/>
    <trip id="120" depart="480.00" from="-E2" to="E3" type="civilian_car"/>
    <trip id="121" depart="484.00" from="-E7" to="E2" type="civilian_car"/>
    <trip id="122" depart="488.00" from="-E6" to="E4" type="civilian_car"/>
    <trip id="123" depart="492.00" from="-E5" to="E4" type="civilian_car"/>
    <trip id="124" depart="496.00" from="-E4" to="E5" type="civilian_car"/>
    <trip id="125" depart="500.00" from="-E2" to="E7" type="civilian_car"/>
    <trip id="126" depart="504.00" from="-E6" to="E5" type="civilian_car"/>
    <trip id="127" depart="508.00" from="-E7" to="E5" type="civilian_car"/>
    <trip id="128" depart="512.00" from="-E4" to="-E1" type="civilian_car"/>
    <trip id="129" depart="516.00" from="-E7" to="E2" type="civilian_car"/>
    <trip id="130" depart="520.00" from="-E4" to="E6" type="civilian_car"/>
    <trip id="131" depart="524.00" from="-E7" to="E2" type="civilian_car"/>
    <trip id="132" depart="528.00" from="-E4" to="E3" type="civilian_car"/>
    <trip id="133" depart="532.00" from="-E5" to="E2" type="civilian_car"/>
    <trip id="134" depart="536.00" from="E3" to="E5" type="civilian_car"/>
    <trip id="135" depart="540.00" from="-E5" to="E4" type="civilian_car"/>
    <trip id="136" depart="544.00" from="-E5" to="-E3" type="civilian_car"/>
    <trip id="137" depart="548.00" from="-E5" to="E7" type="civilian_car"/>
    <trip id="138" depart="552.00" from="-E2" to="E4" type="civilian_car"/>
    <trip id="139" depart="556.00" from="-E7" to="E2" type="civilian_car"/>
    <trip id="140" depart="560.00" from="E1" to="E6" type="civilian_car"/>
    <trip id="141" depart="564.00" from="-E7" to="-E3" type="civilian_car"/>
    <trip id="142" depart="568.00" from="-E3" to="-E1" type="civilian_car"/>
    <trip id="143" depart="572.00" from="-E5" to="-E3" type="civilian_car"/>
    <trip id="144" depart="576.00" from="-E7" to="-E1" type="civilian_car"/>
    <trip id="145" depart="580.00" from="E1" to="E6" type="civilian_car"/>
    <trip id="146" depart="584.00" from="-E2" to="E3" type="civilian_car"/>
    <trip id="147" depart="588.00" from="-E6" to="-E1" type="civilian_car"/>
    <trip id="148" depart="592.00" from="-E5" to="E6" type="civilian_car"/>
    <trip id="149" depart="596.00" from="-E6" to="E7" type="civilian_car"/>
</routes>
