<routes>
    <vType id="civilian_car" vClass="passenger" sigma="0.25" color="yellow"/>
</routes>
